data/upstream/arpae-go/extracted/Challenge_1_Original_Dataset_2_Scenarios/Original_Dataset_Real-Time_Edition_2/Network_03R-020/scenario_10/case.raw
0,   100.00, 33, 0, 1, 60.00     / PSS(R)E-33.7    FRI, AUG 24 2018  11:30
 GO Competition Network Model 03
 2015 S             REAL_TIME SEQUENCE RUN AT 2015/07/22 11.
     1,'A1          ', 115.0000,1,   1,   1,   1,1.00780,  -8.3595,1.05000,0.95000,1.10000,0.90000
     2,'A2          ', 115.0000,1,   1,   1,   1,1.01217,  -9.4099,1.05000,0.95000,1.10000,0.90000
     3,'A3          ',  35.0000,1,   1,   1,   1,1.00526,  -9.2748,1.05000,0.95000,1.10000,0.90000
     4,'A4          ', 115.0000,1,   1,   1,   1,1.01393,  -7.2705,1.05000,0.95000,1.10000,0.90000
     5,'A5          ',  13.0000,1,   1,   1,   1,1.01212,  -9.7781,1.05000,0.95000,1.10000,0.90000
     6,'A6          ',  14.0000,2,   1,   1,   1,1.00020,  -7.4996,1.05000,0.95000,1.10000,0.90000
     7,'A7          ', 115.0000,1,   1,   1,   1,1.00709,  -9.0553,1.05000,0.95000,1.10000,0.90000
     8,'A8          ',  13.0000,1,   1,   1,   1,1.01253,  -9.3685,1.05000,0.95000,1.10000,0.90000
     9,'A9          ',  35.0000,1,   1,   1,   1,1.00577,  -8.9594,1.05000,0.95000,1.10000,0.90000
    10,'A10         ', 115.0000,1,   1,   1,   1,1.01163,  -9.7391,1.05000,0.95000,1.10000,0.90000
    11,'A11         ', 115.0000,1,   1,   1,   1,1.00963, -10.0640,1.05000,0.95000,1.10000,0.90000
    12,'A12         ',  35.0000,1,   1,   1,   1,1.01386,  -8.9201,1.05000,0.95000,1.10000,0.90000
    13,'A13         ',  13.0000,1,   1,   1,   1,1.01720,  -8.9572,1.05000,0.95000,1.10000,0.90000
    15,'A15         ',  35.0000,1,   1,   1,   1,1.01453,  -9.3266,1.05000,0.95000,1.10000,0.90000
    16,'A16         ', 115.0000,1,   1,   1,   1,1.01660,  -7.1541,1.05000,0.95000,1.10000,0.90000
    17,'A17         ', 115.0000,1,   1,   1,   1,1.01670,  -7.2363,1.05000,0.95000,1.10000,0.90000
    18,'A18         ', 230.0000,1,   1,   1,   1,1.01006,  -6.1584,1.05000,0.95000,1.10000,0.90000
    19,'A19         ', 230.0000,1,   1,   1,   1,1.01018,  -6.1193,1.05000,0.95000,1.10000,0.90000
    20,'A20         ',  13.0000,1,   1,   1,   1,1.01394,  -7.3189,1.05000,0.95000,1.10000,0.90000
    21,'A21         ', 115.0000,1,   1,   1,   1,1.00923, -11.9033,1.05000,0.95000,1.10000,0.90000
    22,'A22         ', 115.0000,1,   1,   1,   1,1.00771,  -8.7584,1.05000,0.95000,1.10000,0.90000
    23,'A23         ', 115.0000,2,   1,   1,   1,1.01000,  -6.4812,1.05000,0.95000,1.10000,0.90000
    24,'A24         ', 115.0000,1,   1,   1,   1,0.99974,  -9.7090,1.05000,0.95000,1.10000,0.90000
    25,'A25         ',  14.0000,2,   1,   1,   1,1.00020,  -7.4996,1.05000,0.95000,1.10000,0.90000
    27,'A27         ', 115.0000,1,   1,   1,   1,1.01145,  -9.7286,1.05000,0.95000,1.10000,0.90000
    28,'A28         ',  35.0000,1,   1,   1,   1,0.99886,  -9.1431,1.05000,0.95000,1.10000,0.90000
    30,'A30         ', 115.0000,1,   1,   1,   1,1.00235,  -9.5612,1.05000,0.95000,1.10000,0.90000
    31,'A31         ', 230.0000,2,   1,   1,   1,1.00990,  -6.1573,1.05000,0.95000,1.10000,0.90000
    32,'A32         ', 115.0000,1,   1,   1,   1,1.01193,  -9.5224,1.05000,0.95000,1.10000,0.90000
    33,'A33         ', 230.0000,2,   1,   1,   1,1.00914,  -6.3509,1.05000,0.95000,1.10000,0.90000
    34,'A34         ',  35.0000,1,   1,   1,   1,1.00920,  -8.2544,1.05000,0.95000,1.10000,0.90000
    35,'A35         ', 230.0000,2,   1,   1,   1,1.01018,  -6.1193,1.05000,0.95000,1.10000,0.90000
    36,'A36         ', 230.0000,1,   1,   1,   1,1.00914,  -6.3509,1.05000,0.95000,1.10000,0.90000
    37,'A37         ', 230.0000,1,   1,   1,   1,1.01173,  -8.2471,1.05000,0.95000,1.10000,0.90000
    38,'A38         ', 230.0000,1,   1,   1,   1,1.00921,  -6.2417,1.05000,0.95000,1.10000,0.90000
    39,'A39         ',  35.0000,1,   1,   1,   1,0.99312,  -5.7233,1.05000,0.95000,1.10000,0.90000
    40,'A40         ', 115.0000,1,   1,   1,   1,1.01457,  -6.5969,1.05000,0.95000,1.10000,0.90000
    41,'A41         ', 230.0000,1,   1,   1,   1,1.00549,  -8.8788,1.05000,0.95000,1.10000,0.90000
    43,'A43         ', 115.0000,2,   1,   1,   1,1.01310,  -7.2528,1.05000,0.95000,1.10000,0.90000
    44,'A44         ', 115.0000,1,   1,   1,   1,1.01001,  -6.7436,1.05000,0.95000,1.10000,0.90000
    45,'A45         ', 230.0000,2,   1,   1,   1,1.00914,  -6.3509,1.05000,0.95000,1.10000,0.90000
    46,'A46         ', 230.0000,2,   1,   1,   1,1.00480,  -8.6271,1.05000,0.95000,1.10000,0.90000
    47,'A47         ', 115.0000,2,   1,   1,   1,1.01310,  -6.1590,1.05000,0.95000,1.10000,0.90000
    49,'A49         ',  35.0000,1,   1,   1,   1,1.00920,  -8.2544,1.05000,0.95000,1.10000,0.90000
    50,'A50         ', 115.0000,1,   1,   1,   1,1.01258,  -9.3830,1.05000,0.95000,1.10000,0.90000
    51,'A51         ',  13.0000,1,   1,   1,   1,0.99921,  -9.7394,1.05000,0.95000,1.10000,0.90000
    52,'A52         ', 230.0000,2,   1,   1,   1,1.00510,  -8.8545,1.05000,0.95000,1.10000,0.90000
    53,'A53         ', 115.0000,1,   1,   1,   1,1.01685, -10.1472,1.05000,0.95000,1.10000,0.90000
    54,'A54         ',  35.0000,1,   1,   1,   1,1.00099, -10.1094,1.05000,0.95000,1.10000,0.90000
    55,'A55         ', 230.0000,2,   1,   1,   1,1.01080,  -7.4996,1.05000,0.95000,1.10000,0.90000
    56,'A56         ',  35.0000,1,   1,   1,   1,1.01464,  -8.8479,1.05000,0.95000,1.10000,0.90000
    57,'A57         ', 115.0000,1,   1,   1,   1,1.00162, -12.5314,1.05000,0.95000,1.10000,0.90000
    58,'A58         ', 115.0000,1,   1,   1,   1,1.02218,  -9.5940,1.05000,0.95000,1.10000,0.90000
    59,'A59         ',  35.0000,2,   1,   1,   1,1.03420,  -7.0237,1.05000,0.95000,1.10000,0.90000
    60,'A60         ', 115.0000,1,   1,   1,   1,1.00628,  -8.9068,1.05000,0.95000,1.10000,0.90000
    61,'A61         ',  13.0000,1,   1,   1,   1,1.01140,  -9.7422,1.05000,0.95000,1.10000,0.90000
    62,'A62         ', 115.0000,1,   1,   1,   1,1.01752, -10.0873,1.05000,0.95000,1.10000,0.90000
    63,'A63         ', 230.0000,1,   1,   1,   1,1.00772,  -8.6729,1.05000,0.95000,1.10000,0.90000
    64,'A64         ',  35.0000,1,   1,   1,   1,1.00934,  -6.5013,1.05000,0.95000,1.10000,0.90000
    65,'A65         ',  14.0000,2,   1,   1,   1,1.01743,  -7.0942,1.05000,0.95000,1.10000,0.90000
    66,'A66         ', 230.0000,1,   1,   1,   1,1.01006,  -6.1584,1.05000,0.95000,1.10000,0.90000
    67,'A67         ', 115.0000,1,   1,   1,   1,1.01195,  -8.2007,1.05000,0.95000,1.10000,0.90000
    68,'A68         ', 115.0000,1,   1,   1,   1,1.01335, -11.0711,1.05000,0.95000,1.10000,0.90000
    69,'A69         ', 230.0000,1,   1,   1,   1,1.01022,  -6.1127,1.05000,0.95000,1.10000,0.90000
    70,'A70         ',  35.0000,1,   1,   1,   1,1.00067,  -6.7454,1.05000,0.95000,1.10000,0.90000
    71,'A71         ', 115.0000,2,   1,   1,   1,1.01590,  -5.7841,1.05000,0.95000,1.10000,0.90000
    72,'A72         ', 115.0000,1,   1,   1,   1,1.01144,  -9.6870,1.05000,0.95000,1.10000,0.90000
    73,'A73         ', 115.0000,1,   1,   1,   1,1.00767,  -9.0667,1.05000,0.95000,1.10000,0.90000
    74,'A74         ', 115.0000,1,   1,   1,   1,1.01263,  -9.3552,1.05000,0.95000,1.10000,0.90000
    75,'A75         ',  13.0000,1,   1,   1,   1,1.01437,  -7.3708,1.05000,0.95000,1.10000,0.90000
    76,'A76         ', 115.0000,1,   1,   1,   1,1.01824, -10.0146,1.05000,0.95000,1.10000,0.90000
    77,'A77         ',  35.0000,1,   1,   1,   1,0.98910,  -9.1441,1.05000,0.95000,1.10000,0.90000
    78,'A78         ',  35.0000,1,   1,   1,   1,1.00194,  -9.6080,1.05000,0.95000,1.10000,0.90000
    79,'A79         ', 230.0000,1,   1,   1,   1,1.01172,  -8.3642,1.05000,0.95000,1.10000,0.90000
    80,'A80         ',  14.0000,2,   1,   1,   1,1.01649,  -7.1580,1.05000,0.95000,1.10000,0.90000
    81,'A81         ', 115.0000,1,   1,   1,   1,1.01744,  -8.9309,1.05000,0.95000,1.10000,0.90000
    82,'A82         ', 115.0000,1,   1,   1,   1,1.01683, -10.1496,1.05000,0.95000,1.10000,0.90000
    83,'A83         ', 115.0000,1,   1,   1,   1,1.01436, -10.9512,1.05000,0.95000,1.10000,0.90000
    84,'A84         ', 115.0000,1,   1,   1,   1,1.01300, -11.1070,1.05000,0.95000,1.10000,0.90000
    85,'A85         ', 115.0000,1,   1,   1,   1,1.00158, -12.5360,1.05000,0.95000,1.10000,0.90000
    86,'A86         ', 230.0000,2,   1,   1,   1,1.01070,  -5.5479,1.05000,0.95000,1.10000,0.90000
    87,'A87         ', 230.0000,2,   1,   1,   1,1.00559,  -8.8774,1.05000,0.95000,1.10000,0.90000
    88,'A88         ',  35.0000,1,   1,   1,   1,1.00686,  -7.0428,1.05000,0.95000,1.10000,0.90000
    89,'A89         ',  35.0000,1,   1,   1,   1,0.99957,  -6.3940,1.05000,0.95000,1.10000,0.90000
    90,'A90         ', 230.0000,2,   1,   1,   1,1.00780,  -8.6176,1.05000,0.95000,1.10000,0.90000
    91,'A91         ', 115.0000,1,   1,   1,   1,1.01472, -10.8904,1.05000,0.95000,1.10000,0.90000
    92,'A92         ', 115.0000,1,   1,   1,   1,1.01046, -10.0427,1.05000,0.95000,1.10000,0.90000
    93,'A93         ', 115.0000,2,   1,   1,   1,1.01610,  -7.2019,1.05000,0.95000,1.10000,0.90000
    94,'A94         ', 115.0000,1,   1,   1,   1,1.00024,  -9.6778,1.05000,0.95000,1.10000,0.90000
    95,'B95         ', 345.0000,1,   1,   2,   1,1.00155, -15.5766,1.05000,0.95000,1.10000,0.90000
    96,'B96         ', 345.0000,1,   1,   2,   1,1.00151, -15.5802,1.05000,0.95000,1.10000,0.90000
    97,'B97         ', 345.0000,1,   1,   2,   1,1.00265, -15.5878,1.05000,0.95000,1.10000,0.90000
    98,'B98         ', 345.0000,2,   1,   2,   1,1.00269, -15.5908,1.05000,0.95000,1.10000,0.90000
    99,'B99         ', 345.0000,2,   1,   2,   1,1.00452, -15.2421,1.05000,0.95000,1.10000,0.90000
   100,'B100        ', 345.0000,2,   1,   2,   1,1.00451, -15.2536,1.05000,0.95000,1.10000,0.90000
   101,'B101        ', 345.0000,1,   1,   2,   1,1.01300, -16.3634,1.05000,0.95000,1.10000,0.90000
   102,'B102        ', 345.0000,1,   1,   2,   1,1.01456, -16.2344,1.05000,0.95000,1.10000,0.90000
   103,'B103        ', 138.0000,1,   1,   2,   1,1.02467, -13.5655,1.05000,0.95000,1.10000,0.90000
   104,'B104        ', 138.0000,1,   1,   2,   1,1.02309,   3.5257,1.05000,0.95000,1.10000,0.90000
   105,'B105        ', 138.0000,1,   1,   2,   1,1.02331,   3.4081,1.05000,0.95000,1.10000,0.90000
   106,'B106        ', 138.0000,1,   1,   2,   1,1.02473,  -6.8674,1.05000,0.95000,1.10000,0.90000
   107,'B107        ', 138.0000,1,   1,   2,   1,1.02473,  -6.8691,1.05000,0.95000,1.10000,0.90000
   108,'B108        ', 138.0000,1,   1,   2,   1,1.02878,   5.9045,1.05000,0.95000,1.10000,0.90000
   109,'B109        ', 138.0000,1,   1,   2,   1,1.01492, -14.7517,1.05000,0.95000,1.10000,0.90000
   110,'B110        ', 138.0000,1,   1,   2,   1,1.02479,  -6.8518,1.05000,0.95000,1.10000,0.90000
   111,'B111        ', 138.0000,1,   1,   2,   1,1.02479,  -6.8534,1.05000,0.95000,1.10000,0.90000
   112,'B112        ', 138.0000,1,   1,   2,   1,1.02810,  -7.8446,1.05000,0.95000,1.10000,0.90000
   113,'B113        ', 138.0000,1,   1,   2,   1,1.02810,  -7.8446,1.05000,0.95000,1.10000,0.90000
   114,'B114        ', 138.0000,1,   1,   2,   1,1.02818,  -7.8385,1.05000,0.95000,1.10000,0.90000
   115,'B115        ', 138.0000,1,   1,   2,   1,1.01451, -15.1731,1.05000,0.95000,1.10000,0.90000
   116,'B116        ', 138.0000,2,   1,   2,   1,1.01971, -13.5912,1.05000,0.95000,1.10000,0.90000
   117,'B117        ', 138.0000,2,   1,   2,   1,1.01988, -13.6418,1.05000,0.95000,1.10000,0.90000
   118,'B118        ', 138.0000,1,   1,   2,   1,1.02032, -14.0286,1.05000,0.95000,1.10000,0.90000
   119,'B119        ', 138.0000,1,   1,   2,   1,1.02042, -14.0217,1.05000,0.95000,1.10000,0.90000
   120,'B120        ', 138.0000,1,   1,   2,   1,1.01448, -14.9100,1.05000,0.95000,1.10000,0.90000
   121,'B121        ', 138.0000,2,   1,   2,   1,1.01712, -14.4361,1.05000,0.95000,1.10000,0.90000
   122,'B122        ', 138.0000,1,   1,   2,   1,1.01714, -14.4335,1.05000,0.95000,1.10000,0.90000
   123,'B123        ', 138.0000,1,   1,   2,   1,1.01714, -14.4335,1.05000,0.95000,1.10000,0.90000
   124,'B124        ', 138.0000,1,   1,   2,   1,1.01712, -14.4361,1.05000,0.95000,1.10000,0.90000
   125,'B125        ', 138.0000,1,   1,   2,   1,1.01495, -14.7485,1.05000,0.95000,1.10000,0.90000
   126,'B126        ', 138.0000,1,   1,   2,   1,1.01452, -15.1732,1.05000,0.95000,1.10000,0.90000
   127,'B127        ', 138.0000,1,   1,   2,   1,1.02389,  -6.5797,1.05000,0.95000,1.10000,0.90000
   128,'B128        ', 138.0000,1,   1,   2,   1,1.02376,  -6.5663,1.05000,0.95000,1.10000,0.90000
   129,'B129        ', 138.0000,1,   1,   2,   1,1.01539,  -5.0669,1.05000,0.95000,1.10000,0.90000
   130,'B130        ', 138.0000,1,   1,   2,   1,1.01550,  -5.0651,1.05000,0.95000,1.10000,0.90000
   131,'B131        ', 138.0000,2,   1,   2,   1,1.02798,  -7.8553,1.05000,0.95000,1.10000,0.90000
   132,'B132        ', 138.0000,1,   1,   2,   1,1.01960, -13.5990,1.05000,0.95000,1.10000,0.90000
   133,'B133        ', 138.0000,2,   1,   2,   1,1.01832, -15.4693,1.05000,0.95000,1.10000,0.90000
   134,'B134        ', 138.0000,2,   1,   2,   1,0.99926, -16.8945,1.05000,0.95000,1.10000,0.90000
   135,'B135        ', 138.0000,1,   1,   2,   1,1.01467, -14.7710,1.05000,0.95000,1.10000,0.90000
   136,'B136        ', 138.0000,1,   1,   2,   1,1.01709, -14.4382,1.05000,0.95000,1.10000,0.90000
   137,'B137        ', 138.0000,1,   1,   2,   1,1.00856,  -6.2038,1.05000,0.95000,1.10000,0.90000
   138,'B138        ', 138.0000,1,   1,   2,   1,1.01931,  -1.0148,1.05000,0.95000,1.10000,0.90000
   139,'B139        ', 138.0000,1,   1,   2,   1,1.01931,  -1.0147,1.05000,0.95000,1.10000,0.90000
   140,'B140        ', 138.0000,1,   1,   2,   1,1.02507,  -6.8204,1.05000,0.95000,1.10000,0.90000
   141,'B141        ', 138.0000,1,   1,   2,   1,1.02524,  -6.7197,1.05000,0.95000,1.10000,0.90000
   142,'B142        ', 138.0000,1,   1,   2,   1,1.02011, -14.1900,1.05000,0.95000,1.10000,0.90000
   143,'B143        ', 138.0000,1,   1,   2,   1,1.02020, -14.2010,1.05000,0.95000,1.10000,0.90000
   144,'B144        ', 138.0000,1,   1,   2,   1,1.01495, -14.7485,1.05000,0.95000,1.10000,0.90000
   145,'B145        ', 138.0000,1,   1,   2,   1,1.01917, -14.1083,1.05000,0.95000,1.10000,0.90000
   146,'B146        ', 138.0000,1,   1,   2,   1,1.02288,  -7.2610,1.05000,0.95000,1.10000,0.90000
   147,'B147        ', 138.0000,1,   1,   2,   1,1.02288,  -7.2712,1.05000,0.95000,1.10000,0.90000
   148,'B148        ', 138.0000,1,   1,   2,   1,1.01650, -16.0203,1.05000,0.95000,1.10000,0.90000
   149,'B149        ', 138.0000,1,   1,   2,   1,1.01682, -16.0050,1.05000,0.95000,1.10000,0.90000
   150,'B150        ', 138.0000,1,   1,   2,   1,1.01445, -15.1762,1.05000,0.95000,1.10000,0.90000
   151,'B151        ', 138.0000,2,   1,   2,   1,1.02001,  -4.4537,1.05000,0.95000,1.10000,0.90000
   152,'B152        ', 138.0000,2,   1,   2,   1,1.02455, -13.5636,1.05000,0.95000,1.10000,0.90000
   153,'B153        ', 138.0000,1,   1,   2,   1,1.01956, -13.8785,1.05000,0.95000,1.10000,0.90000
   154,'B154        ', 138.0000,1,   1,   2,   1,1.01963, -13.8919,1.05000,0.95000,1.10000,0.90000
   155,'B155        ', 138.0000,1,   1,   2,   1,1.02493,  -6.8761,1.05000,0.95000,1.10000,0.90000
   156,'B156        ', 138.0000,2,   1,   2,   1,1.02497,  -6.8629,1.05000,0.95000,1.10000,0.90000
   157,'B157        ', 138.0000,1,   1,   2,   1,1.02760,  -7.0010,1.05000,0.95000,1.10000,0.90000
   158,'B158        ', 138.0000,1,   1,   2,   1,1.02768,  -6.9963,1.05000,0.95000,1.10000,0.90000
   159,'B159        ', 138.0000,2,   1,   2,   1,1.01930,  -6.6732,1.05000,0.95000,1.10000,0.90000
   160,'B160        ', 138.0000,1,   1,   2,   1,1.01937,  -6.6770,1.05000,0.95000,1.10000,0.90000
   161,'B161        ', 138.0000,1,   1,   2,   1,1.01847, -14.2439,1.05000,0.95000,1.10000,0.90000
   162,'B162        ', 138.0000,1,   1,   2,   1,1.01838, -14.2638,1.05000,0.95000,1.10000,0.90000
   163,'B163        ', 138.0000,1,   1,   2,   1,1.02242,  -6.7619,1.05000,0.95000,1.10000,0.90000
   164,'B164        ', 138.0000,1,   1,   2,   1,1.02246,  -6.7599,1.05000,0.95000,1.10000,0.90000
   165,'B165        ', 138.0000,1,   1,   2,   1,1.02488,  -6.8801,1.05000,0.95000,1.10000,0.90000
   166,'B166        ', 138.0000,1,   1,   2,   1,1.02494,  -6.8662,1.05000,0.95000,1.10000,0.90000
   167,'B167        ', 138.0000,1,   1,   2,   1,1.01892, -14.2211,1.05000,0.95000,1.10000,0.90000
   168,'B168        ', 138.0000,1,   1,   2,   1,1.01883, -14.1947,1.05000,0.95000,1.10000,0.90000
   169,'B169        ', 138.0000,1,   1,   2,   1,1.02668,   5.2142,1.05000,0.95000,1.10000,0.90000
   170,'B170        ', 138.0000,1,   1,   2,   1,1.02675,   5.2196,1.05000,0.95000,1.10000,0.90000
   171,'B171        ', 138.0000,1,   1,   2,   1,1.02206,  -6.7706,1.05000,0.95000,1.10000,0.90000
   172,'B172        ', 138.0000,1,   1,   2,   1,1.02211,  -6.7715,1.05000,0.95000,1.10000,0.90000
   173,'B173        ', 138.0000,1,   1,   2,   1,1.01202,  -5.5520,1.05000,0.95000,1.10000,0.90000
   174,'B174        ', 138.0000,1,   1,   2,   1,1.01256,  -5.5131,1.05000,0.95000,1.10000,0.90000
   175,'B175        ', 138.0000,1,   1,   2,   1,1.01524, -15.6160,1.05000,0.95000,1.10000,0.90000
   176,'B176        ', 138.0000,1,   1,   2,   1,1.01534, -15.6317,1.05000,0.95000,1.10000,0.90000
   177,'B177        ', 138.0000,1,   1,   2,   1,1.01450, -15.0932,1.05000,0.95000,1.10000,0.90000
   178,'B178        ', 138.0000,1,   1,   2,   1,1.01449, -15.0932,1.05000,0.95000,1.10000,0.90000
   179,'B179        ', 138.0000,1,   1,   2,   1,1.01975,   0.2617,1.05000,0.95000,1.10000,0.90000
   180,'B180        ', 138.0000,1,   1,   2,   1,1.01940,   0.3776,1.05000,0.95000,1.10000,0.90000
   181,'B181        ', 138.0000,1,   1,   2,   1,1.02153,  -5.9973,1.05000,0.95000,1.10000,0.90000
   182,'B182        ', 138.0000,1,   1,   2,   1,1.02164,  -6.0122,1.05000,0.95000,1.10000,0.90000
   183,'B183        ', 138.0000,1,   1,   2,   1,1.02043,  -5.2286,1.05000,0.95000,1.10000,0.90000
   184,'B184        ', 138.0000,1,   1,   2,   1,1.02100, -13.6035,1.05000,0.95000,1.10000,0.90000
   185,'B185        ', 138.0000,1,   1,   2,   1,1.02105, -13.6407,1.05000,0.95000,1.10000,0.90000
   186,'B186        ', 138.0000,1,   1,   2,   1,1.02118, -13.5946,1.05000,0.95000,1.10000,0.90000
   187,'B187        ', 138.0000,1,   1,   2,   1,1.02126, -13.6304,1.05000,0.95000,1.10000,0.90000
   188,'B188        ', 138.0000,1,   1,   2,   1,1.02014,  -4.8000,1.05000,0.95000,1.10000,0.90000
   189,'B189        ', 138.0000,1,   1,   2,   1,1.02005,  -4.7835,1.05000,0.95000,1.10000,0.90000
   190,'B190        ', 138.0000,2,   1,   2,   1,1.03300,  -7.4234,1.05000,0.95000,1.10000,0.90000
   191,'B191        ', 138.0000,1,   1,   2,   1,1.01483, -14.8274,1.05000,0.95000,1.10000,0.90000
   192,'B192        ', 138.0000,1,   1,   2,   1,1.01486, -14.8255,1.05000,0.95000,1.10000,0.90000
   193,'B193        ', 138.0000,1,   1,   2,   1,1.01476, -14.7637,1.05000,0.95000,1.10000,0.90000
   194,'B194        ', 138.0000,1,   1,   2,   1,1.02301, -11.4543,1.05000,0.95000,1.10000,0.90000
   195,'B195        ', 138.0000,1,   1,   2,   1,1.02312, -11.4457,1.05000,0.95000,1.10000,0.90000
   196,'B196        ', 138.0000,1,   1,   2,   1,1.03301,  -7.4235,1.05000,0.95000,1.10000,0.90000
   197,'B197        ', 138.0000,1,   1,   2,   1,1.01714, -14.4335,1.05000,0.95000,1.10000,0.90000
   198,'B198        ', 138.0000,1,   1,   2,   1,1.01443, -14.9748,1.05000,0.95000,1.10000,0.90000
   199,'B199        ', 138.0000,1,   1,   2,   1,1.01444, -14.9746,1.05000,0.95000,1.10000,0.90000
   200,'B200        ', 138.0000,1,   1,   2,   1,1.02477,  -6.8825,1.05000,0.95000,1.10000,0.90000
   201,'B201        ', 138.0000,1,   1,   2,   1,1.02480,  -6.8821,1.05000,0.95000,1.10000,0.90000
   202,'B202        ', 138.0000,1,   1,   2,   1,1.02474,  -6.8757,1.05000,0.95000,1.10000,0.90000
   203,'B203        ', 138.0000,1,   1,   2,   1,1.02473,  -6.8740,1.05000,0.95000,1.10000,0.90000
   204,'B204        ', 138.0000,1,   1,   2,   1,1.02470,  -6.8568,1.05000,0.95000,1.10000,0.90000
...
0 / END OF BUS DATA, BEGIN LOAD DATA
     1,'1 ',1,   1,  11,     9.584,     4.034,     0.000,     0.000,     0.000,     0.000,   1,1,0
     2,'1 ',1,   1,  11,     5.525,     1.228,     0.000,     0.000,     0.000,     0.000,   1,1,0
     2,'2 ',1,   1,  11,     0.069,     0.318,     0.000,     0.000,     0.000,     0.000,   1,1,0
     2,'99',0,   1,  11,    16.545,    15.406,     0.000,     0.000,     0.000,     0.000,   1,1,0
     3,'1 ',1,   1,  11,     5.500,     1.559,     0.000,     0.000,     0.000,     0.000,   1,1,0
     5,'1 ',1,   1,  11,     0.306,    -0.792,     0.000,     0.000,     0.000,     0.000,   1,1,0
     7,'1 ',1,   1,  11,     4.240,     2.426,     0.000,     0.000,     0.000,     0.000,   1,1,0
     8,'1 ',1,   1,  11,     1.322,     0.224,     0.000,     0.000,     0.000,     0.000,   1,1,0
     9,'1 ',1,   1,  11,     8.168,     1.602,     0.000,     0.000,     0.000,     0.000,   1,1,0
    12,'1 ',1,   1,  11,     6.073,     3.991,     0.000,     0.000,     0.000,     0.000,   1,1,0
    13,'1 ',1,   1,  11,     5.038,     1.384,     0.000,     0.000,     0.000,     0.000,   1,1,0
    15,'1 ',1,   1,  11,     8.100,     2.089,     0.000,     0.000,     0.000,     0.000,   1,1,0
    20,'1 ',1,   1,  11,     7.925,    -2.519,     0.000,     0.000,     0.000,     0.000,   1,1,0
    21,'1 ',1,   1,  11,     4.920,    -0.661,     0.000,     0.000,     0.000,     0.000,   1,1,0
    28,'1 ',1,   1,  11,    15.096,     1.796,     0.000,     0.000,     0.000,     0.000,   1,1,0
    32,'1 ',1,   1,  11,     4.346,     0.730,     0.000,     0.000,     0.000,     0.000,   1,1,0
    34,'1 ',1,   1,  11,     6.086,     5.001,     0.000,     0.000,     0.000,     0.000,   1,1,0
    36,'99',0,   1,  11,   108.412,    -4.520,     0.000,     0.000,     0.000,     0.000,   1,1,0
    37,'1 ',1,   1,  11,    -5.082,    -2.020,     0.000,     0.000,     0.000,     0.000,   1,1,0
    39,'1 ',1,   1,  11,    10.812,     4.352,     0.000,     0.000,     0.000,     0.000,   1,1,0
    43,'1 ',1,   1,  11,     1.247,     0.281,     0.000,     0.000,     0.000,     0.000,   1,1,0
    44,'1 ',1,   1,  11,     5.500,     1.397,     0.000,     0.000,     0.000,     0.000,   1,1,0
    47,'1 ',1,   1,  11,     6.553,    -0.929,     0.000,     0.000,     0.000,     0.000,   1,1,0
    49,'1 ',1,   1,  11,     6.086,     5.001,     0.000,     0.000,     0.000,     0.000,   1,1,0
    51,'1 ',1,   1,  11,     3.118,     1.871,     0.000,     0.000,     0.000,     0.000,   1,1,0
    53,'1 ',1,   1,  11,     4.352,     0.337,     0.000,     0.000,     0.000,     0.000,   1,1,0
    54,'1 ',1,   1,  11,     8.898,    -0.673,     0.000,     0.000,     0.000,     0.000,   1,1,0
    56,'1 ',1,   1,  11,     3.903,     3.610,     0.000,     0.000,     0.000,     0.000,   1,1,0
    57,'1 ',1,   1,  11,     4.471,    -0.168,     0.000,     0.000,     0.000,     0.000,   1,1,0
    58,'99',0,   1,  11,    10.106,    10.951,     0.000,     0.000,     0.000,     0.000,   1,1,0
    59,'1 ',1,   1,  11,     5.556,     3.280,     0.000,     0.000,     0.000,     0.000,   1,1,0
    61,'1 ',1,   1,  11,     2.338,    -0.287,     0.000,     0.000,     0.000,     0.000,   1,1,0
    62,'1 ',1,   1,  11,     4.857,    -0.168,     0.000,     0.000,     0.000,     0.000,   1,1,0
    63,'1 ',1,   1,  11,    18.407,     0.056,     0.000,     0.000,     0.000,     0.000,   1,1,0
    64,'1 ',1,   1,  11,     5.281,     4.683,     0.000,     0.000,     0.000,     0.000,   1,1,0
    65,'1 ',1,   1,  11,     0.567,     0.368,     0.000,     0.000,     0.000,     0.000,   1,1,0
    68,'1 ',1,   1,  11,     4.383,    -0.162,     0.000,     0.000,     0.000,     0.000,   1,1,0
    70,'1 ',1,   1,  11,     3.454,    -2.164,     0.000,     0.000,     0.000,     0.000,   1,1,0
    71,'1 ',1,   1,  11,     3.504,    -1.091,     0.000,     0.000,     0.000,     0.000,   1,1,0
    71,'2 ',1,   1,  11,     3.504,    -1.091,     0.000,     0.000,     0.000,     0.000,   1,1,0
    72,'1 ',1,   1,  11,     3.336,     0.218,     0.000,     0.000,     0.000,     0.000,   1,1,0
    74,'1 ',1,   1,  11,    -0.206,     0.218,     0.000,     0.000,     0.000,     0.000,   1,1,0
    74,'2 ',1,   1,  11,     4.346,     2.750,     0.000,     0.000,     0.000,     0.000,   1,1,0
    75,'1 ',1,   1,  11,     1.858,    -1.509,     0.000,     0.000,     0.000,     0.000,   1,1,0
    76,'1 ',1,   1,  11,     3.330,    -0.168,     0.000,     0.000,     0.000,     0.000,   1,1,0
    77,'1 ',1,   1,  11,    14.609,     0.262,     0.000,     0.000,     0.000,     0.000,   1,1,0
    78,'1 ',1,   1,  11,     8.698,     2.145,     0.000,     0.000,     0.000,     0.000,   1,1,0
    80,'1 ',1,   1,  11,     0.561,     0.337,     0.000,     0.000,     0.000,     0.000,   1,1,0
    81,'99',0,   1,  11,    30.844,    22.078,     0.000,     0.000,     0.000,     0.000,   1,1,0
    82,'1 ',1,   1,  11,     4.352,     0.337,     0.000,     0.000,     0.000,     0.000,   1,1,0
    84,'1 ',1,   1,  11,     5.400,     0.343,     0.000,     0.000,     0.000,     0.000,   1,1,0
    85,'1 ',1,   1,  11,     8.524,     2.388,     0.000,     0.000,     0.000,     0.000,   1,1,0
    88,'1 ',1,   1,  11,    -0.162,     0.006,     0.000,     0.000,     0.000,     0.000,   1,1,0
    89,'1 ',1,   1,  11,    12.190,     0.012,     0.000,     0.000,     0.000,     0.000,   1,1,0
    92,'1 ',1,   1,  11,     2.825,    -0.168,     0.000,     0.000,     0.000,     0.000,   1,1,0
    94,'1 ',1,   1,  11,     1.353,     1.565,     0.000,     0.000,     0.000,     0.000,   1,1,0
    96,'99',1,   1,   4,    13.817,    24.539,     0.000,     0.000,     0.000,     0.000,   1,1,0
    97,'99',1,   1,   4,    11.742,    15.779,     0.000,     0.000,     0.000,     0.000,   1,1,0
    99,'1 ',1,   1,   4,     4.365,    11.224,     0.000,     0.000,     0.000,     0.000,   1,1,0
   100,'1 ',1,   1,   4,     4.988,    13.094,     0.000,     0.000,     0.000,     0.000,   1,1,0
   101,'99',1,   1,   4,    64.076,    12.213,     0.000,     0.000,     0.000,     0.000,   1,1,0
   102,'99',0,   1,   4,     1.156,   -45.892,     0.000,     0.000,     0.000,     0.000,   1,1,0
   105,'1 ',1,   1,   4,     2.669,     0.985,     0.000,     0.000,     0.000,     0.000,   1,1,0
   106,'1 ',1,   1,   4,     3.417,     1.434,     0.000,     0.000,     0.000,     0.000,   1,1,0
   108,'1 ',1,   1,   4,     4.801,     1.596,     0.000,     0.000,     0.000,     0.000,   1,1,0
   108,'99',1,   1,   4,     1.287,   -10.070,     0.000,     0.000,     0.000,     0.000,   1,1,0
   109,'1 ',1,   1,   4,     5.132,     1.347,     0.000,     0.000,     0.000,     0.000,   1,1,0
   110,'1 ',1,   1,   4,     1.166,     0.499,     0.000,     0.000,     0.000,     0.000,   1,1,0
   111,'1 ',1,   1,   4,     2.083,     0.885,     0.000,     0.000,     0.000,     0.000,   1,1,0
   112,'1 ',1,   1,   4,     8.430,     3.136,     0.000,     0.000,     0.000,     0.000,   1,1,0
   115,'1 ',1,   1,   4,     2.999,     1.079,     0.000,     0.000,     0.000,     0.000,   1,1,0
   116,'1 ',1,   1,   4,    14.722,    13.157,     0.000,     0.000,     0.000,     0.000,   1,1,0
   118,'1 ',1,   1,   4,     3.404,     1.440,     0.000,     0.000,     0.000,     0.000,   1,1,0
   120,'1 ',1,   1,   4,     5.998,     1.958,     0.000,     0.000,     0.000,     0.000,   1,1,0
   121,'1 ',1,   1,   4,     0.000,     0.000,     0.000,     0.000,     0.000,     0.000,   1,1,0
   128,'1 ',1,   1,   4,     0.624,     0.237,     0.000,     0.000,     0.000,     0.000,   1,1,0
   129,'1 ',1,   1,   4,     2.800,     1.939,     0.000,     0.000,     0.000,     0.000,   1,1,0
   131,'1 ',1,   1,   4,    49.883,    24.318,     0.000,     0.000,     0.000,     0.000,   1,1,0
   132,'1 ',1,   1,   4,     3.261,     1.129,     0.000,     0.000,     0.000,     0.000,   1,1,0
   133,'1 ',1,   1,   4,     1.197,     0.374,     0.000,     0.000,     0.000,     0.000,   1,1,0
   134,'1 ',1,   1,   4,    33.047,     2.000,     0.000,     0.000,     0.000,     0.000,   1,1,0
   135,'1 ',1,   1,   4,     3.741,     1.328,     0.000,     0.000,     0.000,     0.000,   1,1,0
   136,'1 ',1,   1,   4,     1.733,     0.561,     0.000,     0.000,     0.000,     0.000,   1,1,0
   137,'1 ',1,   1,   4,     6.591,     2.189,     0.000,     0.000,     0.000,     0.000,   1,1,0
   137,'99',0,   1,   4,    28.183,   -12.764,     0.000,     0.000,     0.000,     0.000,   1,1,0
   138,'1 ',1,   1,   4,     0.268,     0.062,     0.000,     0.000,     0.000,     0.000,   1,1,0
   140,'1 ',1,   1,   4,     1.733,     1.035,     0.000,     0.000,     0.000,     0.000,   1,1,0
   141,'1 ',1,   1,   4,     3.635,     0.418,     0.000,     0.000,     0.000,     0.000,   1,1,0
   142,'1 ',1,   1,   4,     5.063,     1.721,     0.000,     0.000,     0.000,     0.000,   1,1,0
   143,'99',0,   1,   4,     0.426,     1.249,     0.000,     0.000,     0.000,     0.000,   1,1,0
   145,'99',0,   1,   4,    53.244,    16.969,     0.000,     0.000,     0.000,     0.000,   1,1,0
   146,'1 ',1,   1,   4,     0.998,     0.249,     0.000,     0.000,     0.000,     0.000,   1,1,0
   147,'1 ',1,   1,   4,     0.667,     0.306,     0.000,     0.000,     0.000,     0.000,   1,1,0
   148,'1 ',1,   1,   4,     4.072,     1.740,     0.000,     0.000,     0.000,     0.000,   1,1,0
   149,'99',0,   1,   4,     9.227,    -8.412,     0.000,     0.000,     0.000,     0.000,   1,1,0
   150,'1 ',1,   1,   4,     2.999,     0.942,     0.000,     0.000,     0.000,     0.000,   1,1,0
   151,'1 ',1,   1,   4,    11.791,    18.837,     0.000,     0.000,     0.000,     0.000,   1,1,0
   152,'1 ',1,   1,   4,     4.365,     8.729,     0.000,     0.000,     0.000,     0.000,   1,1,0
   153,'1 ',1,   1,   4,     5.668,     1.908,     0.000,     0.000,     0.000,     0.000,   1,1,0
   157,'1 ',1,   1,   4,     1.833,     0.779,     0.000,     0.000,     0.000,     0.000,   1,1,0
   159,'1 ',1,   1,   4,     9.072,     0.343,     0.000,     0.000,     0.000,     0.000,   1,1,0
   160,'1 ',1,   1,   4,     7.002,     1.659,     0.000,     0.000,     0.000,     0.000,   1,1,0
   161,'1 ',1,   1,   4,     3.978,     1.727,     0.000,     0.000,     0.000,     0.000,   1,1,0
   162,'1 ',1,   1,   4,     5.182,     2.295,     0.000,     0.000,     0.000,     0.000,   1,1,0
   163,'1 ',1,   1,   4,     0.530,     0.050,     0.000,     0.000,     0.000,     0.000,   1,1,0
   165,'1 ',1,   1,   4,     0.412,     0.243,     0.000,     0.000,     0.000,     0.000,   1,1,0
   166,'1 ',1,   1,   4,     0.330,     0.193,     0.000,     0.000,     0.000,     0.000,   1,1,0
   168,'1 ',1,   1,   4,     6.466,     2.157,     0.000,     0.000,     0.000,     0.000,   1,1,0
   169,'1 ',1,   1,   4,     1.602,     0.580,     0.000,     0.000,     0.000,     0.000,   1,1,0
   171,'1 ',1,   1,   4,     3.336,     0.474,     0.000,     0.000,     0.000,     0.000,   1,1,0
   173,'1 ',1,   1,   4,     4.527,     1.690,     0.000,     0.000,     0.000,     0.000,   1,1,0
   175,'1 ',1,   1,   4,     1.864,     0.711,     0.000,     0.000,     0.000,     0.000,   1,1,0
   176,'1 ',1,   1,   4,     4.003,     1.422,     0.000,     0.000,     0.000,     0.000,   1,1,0
   179,'1 ',1,   1,   4,     3.735,     1.284,     0.000,     0.000,     0.000,     0.000,   1,1,0
   181,'1 ',1,   1,   4,     2.831,     1.178,     0.000,     0.000,     0.000,     0.000,   1,1,0
   182,'1 ',1,   1,   4,     2.669,     1.116,     0.000,     0.000,     0.000,     0.000,   1,1,0
   184,'1 ',1,   1,   4,     2.270,     0.767,     0.000,     0.000,     0.000,     0.000,   1,1,0
   185,'1 ',1,   1,   4,     2.662,     0.966,     0.000,     0.000,     0.000,     0.000,   1,1,0
   188,'1 ',1,   1,   4,     0.468,     0.231,     0.000,     0.000,     0.000,     0.000,   1,1,0
   189,'1 ',1,   1,   4,     0.798,     0.362,     0.000,     0.000,     0.000,     0.000,   1,1,0
   191,'1 ',1,   1,   4,     2.868,     1.079,     0.000,     0.000,     0.000,     0.000,   1,1,0
   193,'1 ',1,   1,   4,     2.868,     1.016,     0.000,     0.000,     0.000,     0.000,   1,1,0
   194,'1 ',1,   1,   4,     7.601,     2.469,     0.000,     0.000,     0.000,     0.000,   1,1,0
   195,'99',0,   1,   4,    18.155,     5.789,     0.000,     0.000,     0.000,     0.000,   1,1,0
   196,'1 ',1,   1,   4,     0.000,     0.000,     0.000,     0.000,     0.000,     0.000,   1,1,0
   198,'1 ',1,   1,   4,     2.401,     0.860,     0.000,     0.000,     0.000,     0.000,   1,1,0
   200,'1 ',1,   1,   4,     3.311,     0.923,     0.000,     0.000,     0.000,     0.000,   1,1,0
   201,'1 ',1,   1,   4,     4.627,     1.253,     0.000,     0.000,     0.000,     0.000,   1,1,0
   202,'1 ',1,   1,   4,     1.341,     0.349,     0.000,     0.000,     0.000,     0.000,   1,1,0
   204,'1 ',1,   1,   4,     7.370,     2.906,     0.000,     0.000,     0.000,     0.000,   1,1,0
   205,'1 ',1,   1,   4,     6.990,     3.018,     0.000,     0.000,     0.000,     0.000,   1,1,0
   206,'1 ',1,   1,   4,     2.575,     1.060,     0.000,     0.000,     0.000,     0.000,   1,1,0
   207,'1 ',1,   1,   4,     1.602,     0.648,     0.000,     0.000,     0.000,     0.000,   1,1,0
   208,'99',1,   1,   4,    21.430,    -1.053,     0.000,     0.000,     0.000,     0.000,   1,1,0
   209,'1 ',1,   1,   4,     0.330,     0.187,     0.000,     0.000,     0.000,     0.000,   1,1,0
   213,'99',1,   1,   9,    29.783,    10.365,     0.000,     0.000,     0.000,     0.000,   1,1,0
   214,'99',1,   1,   9,   170.247,    13.821,     0.000,     0.000,     0.000,     0.000,   1,1,0
   216,'99',1,   1,   9,    48.260,    28.090,     0.000,     0.000,     0.000,     0.000,   1,1,0
   220,'99',0,   1,   9,   659.876,    -1.015,     0.000,     0.000,     0.000,     0.000,   1,1,0
   221,'1 ',1,   1,   9,    20.053,    32.467,     0.000,     0.000,     0.000,     0.000,   1,1,0
   222,'1 ',1,   1,   9,    28.907,    57.409,     0.000,     0.000,     0.000,     0.000,   1,1,0
   223,'1 ',1,   1,   9,    37.412,    74.824,     0.000,     0.000,     0.000,     0.000,   1,1,0
   224,'1 ',1,   1,   9,    37.412,    74.824,     0.000,     0.000,     0.000,     0.000,   1,1,0
   224,'99',1,   1,   9,   626.390,   102.725,     0.000,     0.000,     0.000,     0.000,   1,1,0
   225,'99',1,   1,   9,   233.229,    52.742,     0.000,     0.000,     0.000,     0.000,   1,1,0
   226,'99',1,   1,   9,    44.461,    36.636,     0.000,     0.000,     0.000,     0.000,   1,1,0
   227,'99',1,   1,   9,    42.439,   -33.884,     0.000,     0.000,     0.000,     0.000,   1,1,0
   228,'1 ',1,   1,   9,    24.193,    -1.684,     0.000,     0.000,     0.000,     0.000,   1,1,0
   229,'99',1,   1,   9,     8.758,    15.923,     0.000,     0.000,     0.000,     0.000,   1,1,0
   231,'99',1,   1,   9,    93.587,    34.670,     0.000,     0.000,     0.000,     0.000,   1,1,0
   234,'99',1,   1,   9,     4.635,    23.944,     0.000,     0.000,     0.000,     0.000,   1,1,0
   235,'99',1,   1,   9,    30.881,    25.196,     0.000,     0.000,     0.000,     0.000,   1,1,0
   236,'1 ',1,   1,   9,     4.801,    12.471,     0.000,     0.000,     0.000,     0.000,   1,1,0
   236,'99',1,   1,   9,   193.786,    -7.977,     0.000,     0.000,     0.000,     0.000,   1,1,0
   237,'1 ',1,   1,   9,     2.401,     0.624,     0.000,     0.000,     0.000,     0.000,   1,1,0
   238,'1 ',1,   1,   9,     1.415,     0.692,     0.000,     0.000,     0.000,     0.000,   1,1,0
   239,'1 ',1,   1,   9,     0.985,     0.249,     0.000,     0.000,     0.000,     0.000,   1,1,0
   240,'1 ',1,   1,   9,     2.768,     0.686,     0.000,     0.000,     0.000,     0.000,   1,1,0
   241,'1 ',1,   1,   9,     2.893,     0.249,     0.000,     0.000,     0.000,     0.000,   1,1,0
   241,'99',1,   1,   9,     2.220,    -0.173,     0.000,     0.000,     0.000,     0.000,   1,1,0
   242,'1 ',1,   1,   9,     8.661,     4.839,     0.000,     0.000,     0.000,     0.000,   1,1,0
   243,'1 ',1,   1,   9,    12.171,     7.002,     0.000,     0.000,     0.000,     0.000,   1,1,0
   245,'99',1,   1,   9,    49.866,     5.728,     0.000,     0.000,     0.000,     0.000,   1,1,0
   246,'1 ',1,   1,   9,    12.471,    24.941,     0.000,     0.000,     0.000,     0.000,   1,1,0
   247,'1 ',1,   1,   9,    12.739,    12.857,     0.000,     0.000,     0.000,     0.000,   1,1,0
   248,'1 ',1,   1,   9,    22.759,     7.489,     0.000,     0.000,     0.000,     0.000,   1,1,0
   249,'99',1,   1,   9,    51.800,     6.755,     0.000,     0.000,     0.000,     0.000,   1,1,0
   250,'1 ',1,   1,   9,     0.094,     0.418,     0.000,     0.000,     0.000,     0.000,   1,1,0
   251,'1 ',1,   1,   9,    11.548,     7.638,     0.000,     0.000,     0.000,     0.000,   1,1,0
   252,'1 ',1,   1,   9,     8.786,     3.822,     0.000,     0.000,     0.000,     0.000,   1,1,0
   253,'1 ',1,   1,   9,     5.412,     0.624,     0.000,     0.000,     0.000,     0.000,   1,1,0
   253,'99',1,   1,   9,     4.932,    -3.257,     0.000,     0.000,     0.000,     0.000,   1,1,0
   254,'99',1,   1,   9,    43.819,    12.776,     0.000,     0.000,     0.000,     0.000,   1,1,0
   256,'1 ',1,   1,   9,     3.504,     0.748,     0.000,     0.000,     0.000,     0.000,   1,1,0
   257,'1 ',1,   1,   9,     3.504,     0.811,     0.000,     0.000,     0.000,     0.000,   1,1,0
   257,'99',1,   1,   9,    13.912,     8.908,     0.000,     0.000,     0.000,     0.000,   1,1,0
   258,'1 ',1,   1,   9,     2.214,     0.187,     0.000,     0.000,     0.000,     0.000,   1,1,0
   259,'1 ',1,   1,   9,     1.478,     0.374,     0.000,     0.000,     0.000,     0.000,   1,1,0
   260,'1 ',1,   1,   9,     2.214,     0.374,     0.000,     0.000,     0.000,     0.000,   1,1,0
   261,'1 ',1,   1,   9,     1.291,     0.249,     0.000,     0.000,     0.000,     0.000,   1,1,0
   262,'99',1,   1,   9,     1.599,    -5.291,     0.000,     0.000,     0.000,     0.000,   1,1,0
   263,'1 ',1,   1,   9,     0.736,     0.187,     0.000,     0.000,     0.000,     0.000,   1,1,0
   264,'1 ',1,   1,   9,     0.249,     0.062,     0.000,     0.000,     0.000,     0.000,   1,1,0
   266,'1 ',1,   1,   5,     1.852,     2.058,     0.000,     0.000,     0.000,     0.000,   1,1,0
   267,'1 ',1,   1,   5,     9.160,     4.359,     0.000,     0.000,     0.000,     0.000,   1,1,0
   269,'1 ',1,   1,   5,    -5.350,     0.948,     0.000,     0.000,     0.000,     0.000,   1,1,0
   270,'1 ',1,   1,   5,     3.984,     1.883,     0.000,     0.000,     0.000,     0.000,   1,1,0
   272,'1 ',1,   1,   5,    19.124,     3.623,     0.000,     0.000,     0.000,     0.000,   1,1,0
   273,'1 ',1,   1,   5,     2.344,     1.721,     0.000,     0.000,     0.000,     0.000,   1,1,0
   274,'1 ',1,   1,   5,     9.683,     2.600,     0.000,     0.000,     0.000,     0.000,   1,1,0
   277,'99',1,   1,   5,   100.671,    49.280,     0.000,     0.000,     0.000,     0.000,   1,1,0
   279,'1 ',1,   1,   5,     4.608,     1.920,     0.000,     0.000,     0.000,     0.000,   1,1,0
   281,'1 ',1,   1,   5,     1.272,     1.883,     0.000,     0.000,     0.000,     0.000,   1,1,0
   284,'1 ',1,   1,   5,     3.710,     1.203,     0.000,     0.000,     0.000,     0.000,   1,1,0
   284,'99',1,   1,   5,     4.140,     3.450,     0.000,     0.000,     0.000,     0.000,   1,1,0
   285,'1 ',1,   1,   5,     1.341,     1.241,     0.000,     0.000,     0.000,     0.000,   1,1,0
   286,'1 ',1,   1,   5,     0.885,     1.765,     0.000,     0.000,     0.000,     0.000,   1,1,0
   287,'1 ',1,   1,   5,     0.848,     1.652,     0.000,     0.000,     0.000,     0.000,   1,1,0
   289,'1 ',1,   1,   5,     3.754,     2.020,     0.000,     0.000,     0.000,     0.000,   1,1,0
   289,'99',1,   1,   5,     1.327,    -1.740,     0.000,     0.000,     0.000,     0.000,   1,1,0
...
0 / END OF LOAD DATA, BEGIN FIXED SHUNT DATA
     2,'1 ',1,     0.000,    15.498
    23,'1 ',1,     0.000,  -120.310
    36,'1 ',1,     0.000,    -4.438
    58,'1 ',1,     0.000,    10.592
    81,'1 ',1,     0.000,    21.502
    98,'1 ',1,     0.000,   -24.285
   100,'1 ',1,     0.000,     4.571
   102,'1 ',1,     0.000,   -43.607
   133,'1 ',1,     0.000,    -1.321
   137,'1 ',1,     0.000,   -13.204
   143,'1 ',1,     0.000,     1.197
   145,'1 ',1,     0.000,    16.360
   149,'1 ',1,     0.000,    -8.091
   156,'1 ',1,     0.000,    40.892
   195,'1 ',1,     0.000,     5.562
   220,'1 ',1,     0.000,    -1.094
   304,'1 ',1,     0.000,     2.218
   348,'1 ',1,     0.000,     5.534
   357,'1 ',1,     0.000,   -30.025
   363,'1 ',1,     0.000,    24.399
   364,'1 ',1,     0.000,   -71.188
   367,'1 ',1,     0.000,    60.608
   376,'1 ',1,     0.000,    -9.534
   380,'1 ',1,     0.000,    11.017
   386,'1 ',1,     0.000,    -5.842
   390,'1 ',1,     0.000,    12.518
   428,'1 ',1,     0.000,    -7.317
   442,'1 ',1,     0.000,    -7.663
   443,'1 ',1,     0.000,    12.284
   444,'1 ',1,     0.000,    19.281
   460,'1 ',1,     0.000,    32.216
   525,'1 ',1,     0.000,   100.748
   576,'1 ',1,     0.000,   -63.285
   591,'1 ',1,     0.000,    22.609
   595,'1 ',1,     0.000,     6.261
   623,'1 ',1,     0.000,    -2.498
   624,'1 ',1,     0.000,     6.887
   631,'1 ',1,     0.000,    30.406
   639,'1 ',1,     0.000,   -66.624
   640,'1 ',1,     0.000,   -75.050
   642,'1 ',1,     0.000,    88.396
   653,'1 ',1,     0.000,    26.664
   684,'1 ',1,     0.000,     0.059
   696,'1 ',1,     0.000,    -1.903
   697,'1 ',1,     0.000,   -37.362
   743,'1 ',1,     0.000,    -1.150
   748,'1 ',1,     0.000,   -19.101
   791,'1 ',1,     0.000,     0.336
   794,'1 ',1,     0.000,    -2.220
0 / END OF FIXED SHUNT DATA, BEGIN GENERATOR DATA
     6,'1 ',     0.000,     0.000,    33.333,   -33.333,0.95340,     0,   100.000, 0.00000E+0, 1.00000E+0, 0.00000E+0, 0.00000E+0,1.00000,0,  100.0,    63.000,    28.500,   1,1.0000,0,1,0,1,0,1,0,1
    23,'98',     5.515,  -121.344,   300.000,  -300.000,1.01000,     0,   100.000, 0.00000E+0, 1.00000E+0, 0.00000E+0, 0.00000E+0,1.00000,1,  100.0,    60.873,     0.000,   1,1.0000,0,1,0,1,0,1,0,1
    25,'1 ',     0.000,     0.000,    22.500,   -22.500,0.95340,     0,    67.500, 0.00000E+0, 1.65000E-1, 0.00000E+0, 0.00000E+0,1.00000,0,  100.0,   280.000,     0.000,   1,1.0000,0,1,0,1,0,1,0,1
    25,'2 ',     0.000,     0.000,    22.500,   -22.500,0.95340,     0,    67.500, 0.00000E+0, 1.65000E-1, 0.00000E+0, 0.00000E+0,1.00000,0,  100.0,    60.430,    14.250,   1,1.0000,0,1,0,1,0,1,0,1
    31,'99',    62.453,    12.304,   600.000,  -600.000,1.00990,     0,   100.000, 0.00000E+0, 1.00000E+0, 0.00000E+0, 0.00000E+0,1.00000,1,  100.0,   161.545,     0.000,   1,1.0000,0,1,0,1,0,1,0,1
    33,'1 ',     0.000,     0.000,    19.290,   -19.290,1.00870,    36,    57.870, 0.00000E+0, 1.48000E-1, 4.70000E-3, 9.39000E-2,1.00000,0,  100.0,    46.200,    11.400,   1,1.0000,0,1,0,1,0,1,0,1
    35,'1 ',     0.000,     0.000,    33.127,   -33.127,1.01010,     0,    99.380, 0.00000E+0, 1.78000E-1, 4.50000E-3, 9.28000E-2,1.00000,0,  100.0,   288.000,     0.000,   1,1.0000,0,1,0,1,0,1,0,1
    35,'2 ',     0.000,     0.000,    23.050,   -23.050,1.01010,     0,    69.150, 0.00000E+0, 1.35000E-1, 2.00000E-3, 5.85000E-2,1.00000,0,  100.0,   300.000,     0.000,   1,1.0000,0,1,0,1,0,1,0,1
    35,'3 ',     0.000,     0.000,    16.237,   -16.237,1.01010,     0,    48.710, 0.00000E+0, 1.93000E-1, 1.60000E-3, 5.41000E-2,1.00000,0,  100.0,    40.140,    25.140,   1,1.0000,0,1,0,1,0,1,0,1
    43,'99',     2.033,    -4.390,   600.000,  -600.000,1.01310,     0,   100.000, 0.00000E+0, 1.00000E+0, 0.00000E+0, 0.00000E+0,1.00000,1,  100.0,   357.500,     0.000,   1,1.0000,0,1,0,1,0,1,0,1
    45,'1 ',     0.000,     0.000,    67.750,   -67.750,1.00870,    36,   203.250, 0.00000E+0, 2.26000E-1, 9.40000E-3, 1.87600E-1,1.00000,0,  100.0,   173.250,    50.540,   1,1.0000,0,1,0,1,0,1,0,1
    46,'99',    20.736,   -16.444,   600.000,  -600.000,1.00480,     0,   100.000, 0.00000E+0, 1.00000E+0, 0.00000E+0, 0.00000E+0,1.00000,1,  100.0,    66.162,     0.000,   1,1.0000,0,1,0,1,0,1,0,1
    47,'99',    27.497,   -10.834,   600.000,  -600.000,1.01310,     0,   100.000, 0.00000E+0, 1.00000E+0, 0.00000E+0, 0.00000E+0,1.00000,1,  100.0,    81.621,     0.000,   1,1.0000,0,1,0,1,0,1,0,1
    52,'99',    49.821,   -51.933,   600.000,  -600.000,1.00510,     0,   100.000, 0.00000E+0, 1.00000E+0, 0.00000E+0, 0.00000E+0,1.00000,1,  100.0,   132.664,     0.000,   1,1.0000,0,1,0,1,0,1,0,1
    55,'99',    62.433,   -13.698,   600.000,  -600.000,1.01080,     0,   100.000, 0.00000E+0, 1.00000E+0, 0.00000E+0, 0.00000E+0,1.00000,1,  100.0,   161.500,     0.000,   1,1.0000,0,1,0,1,0,1,0,1
    59,'1 ',     3.833,   254.700,   254.700,  -254.700,1.04000,     0,   100.000, 0.00000E+0, 1.00000E+0, 0.00000E+0, 0.00000E+0,1.00000,1,  100.0,   353.750,     3.833,   1,1.0000,0,1,0,1,0,1,0,1
    65,'1 ',     7.393,     1.921,   226.800,  -226.800,1.01660,    16,    27.800, 0.00000E+0, 3.20000E-1, 0.00000E+0, 0.00000E+0,1.00000,1,  100.0,   315.000,     7.393,   1,1.0000,0,1,0,1,0,1,0,1
    65,'2 ',     0.000,     0.000,     9.267,    -9.267,1.01660,    16,    27.800, 0.00000E+0, 3.20000E-1, 0.00000E+0, 0.00000E+0,1.00000,0,  100.0,    25.200,     4.750,   1,1.0000,0,1,0,1,0,1,0,1
    71,'99',    27.067,    -9.395,   600.000,  -600.000,1.01590,     0,   100.000, 0.00000E+0, 1.00000E+0, 0.00000E+0, 0.00000E+0,1.00000,1,  100.0,    80.636,     0.000,   1,1.0000,0,1,0,1,0,1,0,1
    80,'1 ',     0.000,     0.000,     9.267,    -9.267,1.01660,    16,    27.800, 0.00000E+0, 3.20000E-1, 0.00000E+0, 0.00000E+0,1.00000,0,  100.0,    26.250,     4.750,   1,1.0000,0,1,0,1,0,1,0,1
    80,'2 ',     0.000,     0.000,     9.267,    -9.267,1.01660,    16,    27.800, 0.00000E+0, 3.20000E-1, 0.00000E+0, 0.00000E+0,1.00000,0,  100.0,    25.200,     1.900,   1,1.0000,0,1,0,1,0,1,0,1
    86,'99',    35.108,    -2.112,   600.000,  -600.000,1.01070,     0,   100.000, 0.00000E+0, 1.00000E+0, 0.00000E+0, 0.00000E+0,1.00000,1,  100.0,    99.024,     0.000,   1,1.0000,0,1,0,1,0,1,0,1
    87,'1 ',     0.000,     0.000,   234.900,  -234.900,1.00510,     0,   100.000, 0.00000E+0, 1.00000E+0, 0.00000E+0, 0.00000E+0,1.00000,0,  100.0,   326.250,     0.000,   1,1.0000,0,1,0,1,0,1,0,1
    90,'99',    22.753,    14.623,   600.000,  -600.000,1.00780,     0,   100.000, 0.00000E+0, 1.00000E+0, 0.00000E+0, 0.00000E+0,1.00000,1,  100.0,    70.774,     0.000,   1,1.0000,0,1,0,1,0,1,0,1
    93,'99',     5.339,   -67.881,   600.000,  -600.000,1.01610,     0,   100.000, 0.00000E+0, 1.00000E+0, 0.00000E+0, 0.00000E+0,1.00000,1,  100.0,   315.000,     0.000,   1,1.0000,0,1,0,1,0,1,0,1
    98,'99',    50.268,   -25.234,    33.333,   -33.333,1.01935,     0,   100.000, 0.00000E+0, 1.00000E+0, 0.00000E+0, 0.00000E+0,1.00000,0,  100.0,    65.268,    50.268,   1,1.0000,0,1,0,1,0,1,0,1
    99,'1 ',     0.000,     0.000,   129.375,  -129.375,1.02455,     0,   163.450, 0.00000E+0, 1.80000E-1, 0.00000E+0, 0.00000E+0,1.00000,0,  100.0,   179.688,    70.000,   1,1.0000,0,1,0,1,0,1,0,1
   100,'1 ',     0.000,     0.000,   129.375,  -129.375,1.02455,     0,   148.190, 0.00000E+0, 1.80000E-1, 0.00000E+0, 0.00000E+0,1.00000,0,  100.0,   179.688,    70.000,   1,1.0000,0,1,0,1,0,1,0,1
   100,'99',    13.104,     4.798,    33.333,   -33.333,1.02455,     0,   100.000, 0.00000E+0, 1.00000E+0, 0.00000E+0, 0.00000E+0,1.00000,0,  100.0,    28.104,    13.104,   1,1.0000,0,1,0,1,0,1,0,1
   116,'1 ',     0.000,     0.000,   123.750,  -123.750,1.02455,     0,   147.700, 0.00000E+0, 1.80000E-1, 0.00000E+0, 0.00000E+0,1.00000,0,  100.0,   171.875,    32.000,   1,1.0000,0,1,0,1,0,1,0,1
   117,'1 ',     0.000,     0.000,    37.667,   -37.667,1.02455,     0,   113.000, 0.00000E+0, 1.80000E-1, 0.00000E+0, 0.00000E+0,1.00000,0,  100.0,   113.000,    32.000,   1,1.0000,0,1,0,1,0,1,0,1
   121,'1 ',     0.000,     0.000,    45.000,   -45.000,1.02455,     0,   135.000, 0.00000E+0, 1.80000E-1, 0.00000E+0, 0.00000E+0,1.00000,0,  100.0,   135.000,    35.000,   1,1.0000,0,1,0,1,0,1,0,1
   131,'1 ',     0.000,     0.000,     8.333,    -8.333,1.02182,     0,    25.000, 0.00000E+0, 2.00000E-1, 0.00000E+0, 0.00000E+0,1.00000,0,  100.0,    25.000,    10.000,   1,1.0000,0,1,0,1,0,1,0,1
   131,'2 ',     0.000,     0.000,     8.333,    -8.333,1.02182,     0,    25.000, 0.00000E+0, 2.00000E-1, 0.00000E+0, 0.00000E+0,1.00000,0,  100.0,    25.000,    10.000,   1,1.0000,0,1,0,1,0,1,0,1
   131,'3 ',     0.000,     0.000,   195.000,  -172.000,1.02182,     0,    30.000, 0.00000E+0, 2.00000E-1, 0.00000E+0, 0.00000E+0,1.00000,0,  100.0,    39.062,    10.000,   1,1.0000,0,1,0,1,0,1,0,1
   131,'4 ',     0.000,     0.000,   177.000,  -168.000,1.02182,     0,    25.000, 0.00000E+0, 2.00000E-1, 0.00000E+0, 0.00000E+0,1.00000,0,  100.0,    31.250,    10.000,   1,1.0000,0,1,0,1,0,1,0,1
   133,'99',     2.396,    -1.381,    33.333,   -33.333,1.02260,     0,   100.000, 0.00000E+0, 1.00000E+0, 0.00000E+0, 0.00000E+0,1.00000,0,  100.0,   295.000,     2.396,   1,1.0000,0,1,0,1,0,1,0,1
   134,'1 ',     0.000,     0.000,    16.667,   -16.667,1.02455,     0,    50.000, 0.00000E+0, 2.00000E-1, 0.00000E+0, 0.00000E+0,1.00000,0,  100.0,    50.000,    10.000,   1,1.0000,0,1,0,1,0,1,0,1
   151,'1 ',     0.000,     0.000,   108.000,  -108.000,1.02455,     0,   120.000, 0.00000E+0, 1.80000E-1, 0.00000E+0, 0.00000E+0,1.00000,0,  100.0,   150.000,    70.000,   1,1.0000,0,1,0,1,0,1,0,1
   151,'2 ',   120.000,   108.000,   108.000,  -108.000,1.02455,     0,   120.000, 0.00000E+0, 1.80000E-1, 0.00000E+0, 0.00000E+0,1.00000,1,  100.0,   150.000,    58.333,   1,1.0000,0,1,0,1,0,1,0,1
   152,'1 ',   149.993,    69.443,   134.994,  -134.994,1.02455,     0,   144.000, 0.00000E+0, 1.80000E-1, 0.00000E+0, 0.00000E+0,1.00000,1,  100.0,   187.491,    79.000,   1,1.0000,0,1,0,1,0,1,0,1
   152,'2 ',     0.000,     0.000,    36.667,   -36.667,1.02455,     0,   110.000, 0.00000E+0, 1.80000E-1, 0.00000E+0, 0.00000E+0,1.00000,0,  100.0,   110.000,    79.000,   1,1.0000,0,1,0,1,0,1,0,1
   156,'99',    47.466,    43.051,    33.333,   -33.333,1.02608,     0,   100.000, 0.00000E+0, 1.00000E+0, 0.00000E+0, 0.00000E+0,1.00000,0,  100.0,    62.466,    47.466,   1,1.0000,0,1,0,1,0,1,0,1
   159,'99',     0.067,    40.821,   600.000,  -600.000,1.01930,     0,   100.000, 0.00000E+0, 1.00000E+0, 0.00000E+0, 0.00000E+0,1.00000,1,  100.0,   366.250,     0.000,   1,1.0000,0,1,0,1,0,1,0,1
   190,'99',    32.650,    59.941,   600.000,  -600.000,1.03300,     0,   100.000, 0.00000E+0, 1.00000E+0, 0.00000E+0, 0.00000E+0,1.00000,1,  100.0,    99.579,     0.000,   1,1.0000,0,1,0,1,0,1,0,1
   221,'1 ',     0.000,     0.000,   123.333,  -123.333,1.02864,     0,   370.000, 0.00000E+0, 2.10000E-1, 0.00000E+0, 0.00000E+0,1.00000,0,  100.0,   370.000,   240.000,   1,1.0000,0,1,0,1,0,1,0,1
   221,'2 ',     0.000,     0.000,   123.333,  -123.333,1.02864,     0,   370.000, 0.00000E+0, 2.10000E-1, 0.00000E+0, 0.00000E+0,1.00000,0,  100.0,   370.000,   240.000,   1,1.0000,0,1,0,1,0,1,0,1
   221,'3 ',     0.000,     0.000,   388.125,  -388.125,1.02864,     0,   449.450, 0.00000E+0, 2.10000E-1, 0.00000E+0, 0.00000E+0,1.00000,0,  100.0,   539.062,   240.000,   1,1.0000,0,1,0,1,0,1,0,1
   222,'1 ',   418.000,   146.993,   416.250,  -416.250,1.02864,     0,   455.560, 0.00000E+0, 2.10000E-1, 0.00000E+0, 0.00000E+0,1.00000,1,  100.0,   578.125,   240.000,   1,1.0000,0,1,0,1,0,1,0,1
   222,'2 ',     0.000,     0.000,   333.000,  -333.000,1.02864,     0,   397.310, 0.00000E+0, 2.10000E-1, 0.00000E+0, 0.00000E+0,1.00000,0,  100.0,   462.500,   240.000,   1,1.0000,0,1,0,1,0,1,0,1
   223,'1 ',   378.871,   -23.062,   981.927,  -981.927,1.01200,     0,   616.840, 0.00000E+0, 2.35000E-1, 0.00000E+0, 0.00000E+0,1.00000,1,  100.0,  1363.788,   350.876,   1,1.0000,0,1,0,1,0,1,0,1
   223,'2 ',   378.871,   -23.062,   981.927,  -981.927,1.01200,     0,   616.840, 0.00000E+0, 2.35000E-1, 0.00000E+0, 0.00000E+0,1.00000,1,  100.0,  1363.788,   350.876,   1,1.0000,0,1,0,1,0,1,0,1
   223,'3 ',   378.871,   -23.062,   981.927,  -981.927,1.01200,     0,   616.840, 0.00000E+0, 2.35000E-1, 0.00000E+0, 0.00000E+0,1.00000,1,  100.0,  1363.788,   350.876,   1,1.0000,0,1,0,1,0,1,0,1
   224,'1 ',     0.000,     0.000,   416.250,  -416.250,1.01200,     0,   451.840, 0.00000E+0, 2.10000E-1, 0.00000E+0, 0.00000E+0,1.00000,0,  100.0,   578.125,   240.000,   1,1.0000,0,1,0,1,0,1,0,1
   224,'2 ',   425.000,    71.422,   382.500,  -382.500,1.01200,     0,   416.510, 0.00000E+0, 2.10000E-1, 0.00000E+0, 0.00000E+0,1.00000,1,  100.0,   531.250,   240.000,   1,1.0000,0,1,0,1,0,1,0,1
   224,'3 ',   425.000,    71.422,   382.500,  -382.500,1.01200,     0,   416.510, 0.00000E+0, 2.10000E-1, 0.00000E+0, 0.00000E+0,1.00000,1,  100.0,   531.250,   240.000,   1,1.0000,0,1,0,1,0,1,0,1
   233,'99',    77.605,   -48.989,   600.000,  -600.000,1.00410,     0,   100.000, 0.00000E+0, 1.00000E+0, 0.00000E+0, 0.00000E+0,1.00000,1,  100.0,   221.800,     0.000,   1,1.0000,0,1,0,1,0,1,0,1
   236,'1 ',     0.000,     0.000,   123.750,  -123.750,1.02045,     0,   166.810, 0.00000E+0, 1.80000E-1, 0.00000E+0, 0.00000E+0,1.00000,0,  100.0,   171.875,    91.667,   1,1.0000,0,1,0,1,0,1,0,1
   236,'98',     0.000,    78.203,   371.000,  -371.000,1.02045,     0,   120.000, 0.00000E+0, 1.80000E-1, 0.00000E+0, 0.00000E+0,1.00000,1,  100.0,   150.000,     0.000,   1,1.0000,0,1,0,1,0,1,0,1
   246,'1 ',   437.500,    64.152,   393.750,  -393.750,1.01364,     0,   477.900, 0.00000E+0, 2.10000E-1, 0.00000E+0, 0.00000E+0,1.00000,1,  100.0,   546.875,   240.000,   1,1.0000,0,1,0,1,0,1,0,1
   250,'1 ',     0.000,     0.000,   190.000,  -179.000,1.02182,     0,    30.000, 0.00000E+0, 2.00000E-1, 0.00000E+0, 0.00000E+0,1.00000,0,  100.0,    37.500,     0.000,   1,1.0000,0,1,0,1,0,1,0,1
   256,'1 ',     0.000,     0.000,   228.600,  -228.600,1.02455,     0,     0.430, 0.00000E+0, 2.00000E-1, 0.00000E+0, 0.00000E+0,1.00000,0,  100.0,   317.500,     0.000,   1,1.0000,0,1,0,1,0,1,0,1
   267,'99',     4.728,     5.676,   600.000,  -600.000,1.01000,     0,   100.000, 0.00000E+0, 1.00000E+0, 0.00000E+0, 0.00000E+0,1.00000,1,  100.0,   367.500,     0.000,   1,1.0000,0,1,0,1,0,1,0,1
   268,'99',   175.469,   145.688,   600.000,  -600.000,1.01800,     0,   100.000, 0.00000E+0, 1.00000E+0, 0.00000E+0, 0.00000E+0,1.00000,1,  100.0,   501.500,     0.000,   1,1.0000,0,1,0,1,0,1,0,1
   272,'99',    27.471,    29.522,   600.000,  -600.000,1.01940,     0,   100.000, 0.00000E+0, 1.00000E+0, 0.00000E+0, 0.00000E+0,1.00000,1,  100.0,    93.094,     0.000,   1,1.0000,0,1,0,1,0,1,0,1
   275,'99',     2.631,   -61.246,   600.000,  -600.000,1.01850,     0,   100.000, 0.00000E+0, 1.00000E+0, 0.00000E+0, 0.00000E+0,1.00000,1,  100.0,    91.321,     0.000,   1,1.0000,0,1,0,1,0,1,0,1
   281,'99',     3.208,    -1.307,   600.000,  -600.000,1.01020,     0,   100.000, 0.00000E+0, 1.00000E+0, 0.00000E+0, 0.00000E+0,1.00000,1,  100.0,   340.000,     0.000,   1,1.0000,0,1,0,1,0,1,0,1
   293,'1 ',     0.000,     0.000,    76.667,   -76.667,1.02590,   322,   230.000, 2.30000E-3, 1.68000E-1, 0.00000E+0, 0.00000E+0,1.02500,0,  100.0,   173.250,   117.800,   1,1.0000,0,1,0,1,0,1,0,1
   296,'1 ',     0.000,     0.000,    76.667,   -76.667,1.02590,   322,   230.000, 2.30000E-3, 1.68000E-1, 0.00000E+0, 0.00000E+0,1.02500,0,  100.0,   173.250,   117.800,   1,1.0000,0,1,0,1,0,1,0,1
   298,'99',     7.169,     5.107,   600.000,  -600.000,1.02780,     0,   100.000, 0.00000E+0, 1.00000E+0, 0.00000E+0, 0.00000E+0,1.00000,1,  100.0,    35.141,     0.000,   1,1.0000,0,1,0,1,0,1,0,1
   304,'99',    29.434,     2.277,    33.333,   -33.333,1.01312,     0,   100.000, 0.00000E+0, 1.00000E+0, 0.00000E+0, 0.00000E+0,1.00000,0,  100.0,    44.434,    29.434,   1,1.0000,0,1,0,1,0,1,0,1
   305,'1 ',     0.000,     0.000,    76.667,   -76.667,1.02590,   265,   230.000, 2.20000E-3, 1.72800E-1, 0.00000E+0, 0.00000E+0,1.02500,0,  100.0,   173.250,   117.800,   1,1.0000,0,1,0,1,0,1,0,1
   307,'99',    11.963,    -2.966,   600.000,  -600.000,1.00640,     0,   100.000, 0.00000E+0, 1.00000E+0, 0.00000E+0, 0.00000E+0,1.00000,1,  100.0,    46.103,     0.000,   1,1.0000,0,1,0,1,0,1,0,1
   309,'1 ',     0.000,     0.000,   444.271,  -444.271,1.01000,   308,   300.000, 0.00000E+0, 2.07000E-1, 0.00000E+0, 0.00000E+0,1.00000,0,  100.0,   617.042,   198.808,   1,1.0000,0,1,0,1,0,1,0,1
   326,'1 ',     0.000,     0.000,    76.667,   -76.667,1.02590,   265,   230.000, 2.20000E-3, 1.72800E-1, 0.00000E+0, 0.00000E+0,1.02500,0,  100.0,   173.250,   117.800,   1,1.0000,0,1,0,1,0,1,0,1
   335,'1 ',     0.000,     0.000,    76.667,   -76.667,1.02590,   265,   230.000, 2.20000E-3, 1.72800E-1, 0.00000E+0, 0.00000E+0,1.02500,0,  100.0,   173.250,   117.800,   1,1.0000,0,1,0,1,0,1,0,1
   337,'99',     3.434,     1.592,   600.000,  -600.000,1.01000,     0,   100.000, 0.00000E+0, 1.00000E+0, 0.00000E+0, 0.00000E+0,1.00000,1,  100.0,   323.750,     0.000,   1,1.0000,0,1,0,1,0,1,0,1
   342,'1 ',     0.000,     0.000,   245.700,  -245.700,1.03000,     0,   100.000, 0.00000E+0, 1.00000E+0, 0.00000E+0, 0.00000E+0,1.00000,0,  100.0,   341.250,     0.000,   1,1.0000,0,1,0,1,0,1,0,1
   345,'99',     6.714,     4.889,   600.000,  -600.000,1.02780,     0,   100.000, 0.00000E+0, 1.00000E+0, 0.00000E+0, 0.00000E+0,1.00000,1,  100.0,    34.101,     0.000,   1,1.0000,0,1,0,1,0,1,0,1
   350,'99',    61.475,   -17.281,   600.000,  -600.000,1.00180,     0,   100.000, 0.00000E+0, 1.00000E+0, 0.00000E+0, 0.00000E+0,1.00000,1,  100.0,   159.310,     0.000,   1,1.0000,0,1,0,1,0,1,0,1
   352,'1 ',     0.000,     0.000,   302.333,  -302.333,1.02590,   277,   907.000, 3.80000E-3, 2.20000E-1, 0.00000E+0, 0.00000E+0,1.00000,0,  100.0,   254.000,     0.000,   1,1.0000,0,1,0,1,0,1,0,1
   353,'99',    45.990,  -128.583,   600.000,  -600.000,1.00630,     0,   100.000, 0.00000E+0, 1.00000E+0, 0.00000E+0, 0.00000E+0,1.00000,1,  100.0,   147.834,     0.000,   1,1.0000,0,1,0,1,0,1,0,1
   357,'99',   122.965,   -29.975,    33.333,   -33.333,1.01000,     0,   100.000, 0.00000E+0, 1.00000E+0, 0.00000E+0, 0.00000E+0,1.00000,0,  100.0,   137.965,   122.965,   1,1.0000,0,1,0,1,0,1,0,1
   361,'99',   232.337,  -182.119,   600.000,  -600.000,1.01000,     0,   100.000, 0.00000E+0, 1.00000E+0, 0.00000E+0, 0.00000E+0,1.00000,1,  100.0,   625.135,     0.000,   1,1.0000,0,1,0,1,0,1,0,1
   364,'99',    27.029,   -71.598,    33.333,   -33.333,1.00286,     0,   100.000, 0.00000E+0, 1.00000E+0, 0.00000E+0, 0.00000E+0,1.00000,0,  100.0,    42.029,    27.029,   1,1.0000,0,1,0,1,0,1,0,1
   370,'1 ',     0.000,     0.000,   228.552,  -228.552,1.01125,     0,   216.550, 0.00000E+0, 1.80000E-1, 0.00000E+0, 0.00000E+0,1.00000,0,  100.0,   317.434,    99.538,   1,1.0000,0,1,0,1,0,1,0,1
   370,'2 ',     0.000,     0.000,   228.552,  -228.552,1.01125,     0,   179.000, 0.00000E+0, 1.80000E-1, 0.00000E+0, 0.00000E+0,1.00000,0,  100.0,   317.434,    99.538,   1,1.0000,0,1,0,1,0,1,0,1
   370,'3 ',     0.000,     0.000,   228.552,  -228.552,1.01125,     0,   179.000, 0.00000E+0, 1.80000E-1, 0.00000E+0, 0.00000E+0,1.00000,0,  100.0,   317.434,    99.538,   1,1.0000,0,1,0,1,0,1,0,1
   371,'1 ',     0.000,     0.000,   161.100,  -161.100,1.01125,     0,   179.000, 0.00000E+0, 1.80000E-1, 0.00000E+0, 0.00000E+0,1.00000,0,  100.0,   223.750,  -200.000,   1,1.0000,0,1,0,1,0,1,0,1
   373,'1 ',     0.000,     0.000,    49.500,  -185.000,1.01909,     0,    58.990, 0.00000E+0, 2.00000E-1, 0.00000E+0, 0.00000E+0,1.00000,0,  100.0,    68.750,    26.000,   1,1.0000,0,1,0,1,0,1,0,1
   374,'1 ',     0.000,     0.000,    18.333,   -18.333,1.01909,     0,    55.000, 0.00000E+0, 2.00000E-1, 0.00000E+0, 0.00000E+0,1.00000,0,  100.0,    55.000,    26.000,   1,1.0000,0,1,0,1,0,1,0,1
   375,'1 ',     0.000,     0.000,   264.600,  -264.600,1.02182,     0,     0.360, 0.00000E+0, 2.00000E-1, 0.00000E+0, 0.00000E+0,1.00000,0,  100.0,   367.500,     0.000,   1,1.0000,0,1,0,1,0,1,0,1
   376,'1 ',     0.000,     0.000,   193.000,  -169.000,1.02727,     0,    26.000, 0.00000E+0, 2.00000E-1, 0.00000E+0, 0.00000E+0,1.00000,0,  100.0,    32.500,     0.000,   1,1.0000,0,1,0,1,0,1,0,1
...